%chk=gaussian.chk
%NProcShared=16
%mem=1gb
#P hf/cc-pVDZ
scf(conver=8) iop(4/5=100) nosymm
Charge Force Prop=(Field,Read) pop=mk

Gaussian run for QMMM in genesis

0 1
 O        -0.9957200000       0.0160400000       1.2422500000
 H        -1.3452700000      -0.7019800000       2.1379400000
 H        -0.9280200000      -0.5566600000       0.3055300000
 
      1.0361400000       1.0137700000      -0.0612400000      -0.8340000000
      0.5104400000       0.8944500000       0.5514100000       0.4170000000
      1.9926900000       1.1973100000       0.4956900000       0.4170000000
     -0.0432300000      -1.0198500000      -1.1953800000      -0.8340000000
      0.4367500000      -0.3759400000      -0.9973200000       0.4170000000
     -0.5031800000      -0.8251400000      -2.0957900000       0.4170000000
 
      1.0361400000       1.0137700000      -0.0612400000
      0.5104400000       0.8944500000       0.5514100000
      1.9926900000       1.1973100000       0.4956900000
     -0.0432300000      -1.0198500000      -1.1953800000
      0.4367500000      -0.3759400000      -0.9973200000
     -0.5031800000      -0.8251400000      -2.0957900000
 

