%chk=gaussian.chk
%NProcShared=16
%mem=1gb
#P hf/cc-pVDZ
scf(conver=8) iop(4/5=100) nosymm
Charge Force Prop=(Field,Read) pop=mk

Gaussian run for QMMM in genesis

0 1
 O        -1.0010427925       0.0010799600       1.2455002245
 H        -1.3401277811      -0.6927503405       2.1239247511
 H        -0.9286844093      -0.5517746188       0.3169061129
 
      1.0623447372       1.0208390491      -0.0646575425      -0.8340000000
      0.4999310747       0.8921496055       0.5629423399       0.4170000000
      1.9791021623       1.1947784175       0.4876217099       0.4170000000
     -0.0569173064      -1.0333134861      -1.2040822877      -0.8340000000
      0.4452858525      -0.3636480198      -0.9951007725       0.4170000000
     -0.4992915695      -0.8253606719      -2.0899644719       0.4170000000
 
      1.0623447372       1.0208390491      -0.0646575425
      0.4999310747       0.8921496055       0.5629423399
      1.9791021623       1.1947784175       0.4876217099
     -0.0569173064      -1.0333134861      -1.2040822877
      0.4452858525      -0.3636480198      -0.9951007725
     -0.4992915695      -0.8253606719      -2.0899644719
 

